Version 4
SHEET 1 880 744
WIRE 144 -256 -368 -256
WIRE 304 -256 144 -256
WIRE 448 -256 304 -256
WIRE 448 -208 448 -256
WIRE 64 -192 32 -192
WIRE 224 -176 224 -192
WIRE 224 -176 208 -176
WIRE 64 -160 48 -160
WIRE 224 -160 224 -176
WIRE 368 -144 368 -176
WIRE 592 -128 512 -128
WIRE 368 -112 96 -112
WIRE 32 -96 32 -192
WIRE 368 -96 32 -96
WIRE -368 -80 -368 -256
WIRE -80 -80 -368 -80
WIRE 448 -64 400 -64
WIRE 400 -48 400 -64
WIRE 400 -48 304 -48
WIRE -208 0 -256 0
WIRE -160 0 -160 -16
WIRE -160 0 -208 0
WIRE 64 0 -16 0
WIRE 368 0 368 -96
WIRE -160 16 -160 0
WIRE 208 16 160 16
WIRE 224 16 208 16
WIRE 592 16 512 16
WIRE 208 32 208 16
WIRE 224 32 208 32
WIRE 224 48 224 32
WIRE -208 96 -208 0
WIRE 32 96 32 -96
WIRE 32 96 -208 96
WIRE -368 144 -368 -80
WIRE -80 144 -368 144
WIRE 144 160 32 160
WIRE 96 176 96 -112
WIRE 176 176 176 160
WIRE 176 176 96 176
WIRE 240 176 240 80
WIRE 400 176 400 -48
WIRE 400 176 240 176
WIRE 64 208 64 0
WIRE 144 208 64 208
WIRE 176 208 176 176
WIRE -208 224 -256 224
WIRE -160 224 -160 208
WIRE -160 224 -208 224
WIRE 32 224 32 160
WIRE 32 224 -16 224
WIRE -160 240 -160 224
WIRE 400 272 400 176
WIRE 448 272 400 272
WIRE 240 288 240 176
WIRE -208 320 -208 224
WIRE 48 320 48 -160
WIRE 48 320 -208 320
WIRE 112 320 48 320
WIRE 224 336 224 320
WIRE 224 336 208 336
WIRE 208 352 208 336
WIRE 208 352 160 352
WIRE 224 352 208 352
WIRE 592 352 512 352
WIRE -368 368 -368 144
WIRE -80 368 -368 368
WIRE 400 416 400 272
WIRE 400 416 304 416
WIRE -160 448 -160 432
WIRE -160 448 -272 448
WIRE 96 448 96 176
WIRE 96 448 -16 448
WIRE -160 464 -160 448
WIRE 400 464 400 416
WIRE 448 464 400 464
WIRE 112 512 112 320
WIRE 368 512 368 368
WIRE 368 512 112 512
WIRE 96 528 96 448
WIRE 368 528 96 528
WIRE 592 544 512 544
WIRE 64 608 64 208
WIRE 224 624 224 608
WIRE 224 624 208 624
WIRE 368 624 368 560
WIRE 32 640 32 224
WIRE 64 640 32 640
WIRE 224 640 224 624
WIRE -368 704 -368 368
WIRE 144 704 -368 704
WIRE 304 704 144 704
WIRE 400 704 400 464
WIRE 400 704 304 704
FLAG -256 0 s0
IOPIN -256 0 In
FLAG -256 224 s1
IOPIN -256 224 In
FLAG -272 448 y
IOPIN -272 448 In
FLAG 592 -128 z0
IOPIN 592 -128 Out
FLAG 592 16 z1
IOPIN 592 16 Out
FLAG 592 352 z2
IOPIN 592 352 Out
FLAG 592 544 z3
IOPIN 592 544 Out
FLAG -368 144 VDD
IOPIN -368 144 In
SYMBOL NOR -112 0 R0
SYMATTR InstName X1
SYMBOL NOR -112 224 R0
SYMATTR InstName X2
SYMBOL NOR -112 448 R0
SYMATTR InstName X3
SYMBOL NOR 416 -128 R0
SYMATTR InstName X4
SYMBOL NOR 416 544 R0
SYMATTR InstName X7
SYMBOL NOR 272 -176 R0
SYMATTR InstName X8
SYMBOL NOR 112 -176 R0
SYMATTR InstName X9
SYMBOL NOR 272 624 M180
SYMATTR InstName X10
SYMBOL NOR 112 624 M180
SYMATTR InstName X11
SYMBOL NOR 416 352 R0
SYMATTR InstName X6
SYMBOL NOR 416 16 R0
SYMATTR InstName X5
SYMBOL NOR 272 32 R0
SYMATTR InstName X12
SYMBOL NOR 272 336 M180
SYMATTR InstName X13
SYMBOL NOR 160 112 M270
SYMATTR InstName X14
SYMBOL NOR 160 256 R90
SYMATTR InstName X15
