Version 4
SHEET 1 880 680
WIRE 192 80 192 64
WIRE 192 80 176 80
WIRE 224 80 192 80
WIRE 192 96 192 80
WIRE 224 96 224 80
WIRE 288 128 240 128
WIRE 384 128 288 128
WIRE 480 160 240 160
WIRE 576 160 480 160
WIRE 176 176 176 80
WIRE 480 192 240 192
WIRE 576 192 480 192
WIRE 288 224 240 224
WIRE 384 224 288 224
WIRE 208 288 208 240
FLAG 208 368 0
FLAG 128 96 0
FLAG 192 -16 0
FLAG 224 -144 0
FLAG 288 48 0
FLAG 384 64 0
FLAG 480 80 0
FLAG 576 96 0
FLAG 480 272 0
FLAG 576 256 0
FLAG 384 288 0
FLAG 288 304 0
SYMBOL demux 208 176 R0
SYMATTR InstName X1
SYMBOL voltage 224 -48 R180
WINDOW 0 43 68 Left 2
WINDOW 3 37 46 Left 2
WINDOW 123 0 0 Left 0
WINDOW 39 0 0 Left 0
SYMATTR InstName V3
SYMATTR Value PULSE(0 1 0 10p 10p 2.5n 5n 10)
SYMBOL res 272 32 R0
SYMATTR InstName R1
SYMATTR Value 100k
SYMBOL cap 368 64 R0
WINDOW 3 24 49 Left 2
SYMATTR InstName C1
SYMATTR Value 100f
SYMBOL res 464 64 R0
SYMATTR InstName R2
SYMATTR Value 100k
SYMBOL cap 560 96 R0
WINDOW 3 24 50 Left 2
SYMATTR InstName C2
SYMATTR Value 100f
SYMBOL res 272 208 R0
SYMATTR InstName R3
SYMATTR Value 100k
SYMBOL cap 368 224 R0
WINDOW 3 24 50 Left 2
SYMATTR InstName C3
SYMATTR Value 100f
SYMBOL res 464 176 R0
WINDOW 0 38 37 Left 2
WINDOW 3 27 83 Left 2
SYMATTR InstName R4
SYMATTR Value 100k
SYMBOL cap 560 192 R0
WINDOW 3 25 50 Left 2
SYMATTR InstName C4
SYMATTR Value 100f
SYMBOL voltage 192 80 R180
WINDOW 0 37 69 Left 2
WINDOW 3 38 47 Left 2
WINDOW 123 0 0 Left 0
WINDOW 39 0 0 Left 0
SYMATTR InstName V4
SYMATTR Value PULSE(0 1 0 10p 10p 2.2n 4.4n 10)
SYMBOL voltage 128 192 R180
WINDOW 0 39 68 Left 2
WINDOW 3 37 43 Left 2
WINDOW 123 0 0 Left 0
WINDOW 39 0 0 Left 0
SYMATTR InstName V1
SYMATTR Value PULSE(0 1 0 10p 10p 2.5n 5n 10)
SYMBOL voltage 208 272 R0
WINDOW 0 -68 45 Left 2
WINDOW 3 -51 74 Left 2
WINDOW 123 0 0 Left 0
WINDOW 39 0 0 Left 0
SYMATTR InstName V2
SYMATTR Value 1
TEXT -184 184 Left 2 !.tran 0 50n 0 1p
TEXT -208 208 Left 2 !.include 90nm_bulk.txt
