Version 4
SHEET 1 880 680
WIRE 0 32 0 16
WIRE 0 160 0 112
WIRE 64 160 0 160
WIRE 112 160 64 160
WIRE 208 176 192 176
WIRE 304 176 208 176
WIRE 64 192 0 192
WIRE 112 192 64 192
FLAG 304 256 0
FLAG 304 112 0
FLAG 144 16 0
FLAG 0 272 0
FLAG 0 16 0
SYMBOL NOR 112 176 R0
SYMATTR InstName X1
SYMBOL voltage 0 176 R0
WINDOW 0 -17 -195 Left 2
WINDOW 3 -16 155 Left 2
WINDOW 123 0 0 Left 0
WINDOW 39 0 0 Left 0
SYMATTR InstName V1
SYMATTR Value PULSE(0 1 3.75n 10p 10p 1.875n 3.75n 10)
SYMBOL res 288 160 R0
WINDOW 0 47 39 Left 2
WINDOW 3 46 59 Left 2
SYMATTR InstName R1
SYMATTR Value 100k
SYMBOL cap 288 112 R0
WINDOW 0 49 23 Left 2
WINDOW 3 49 44 Left 2
SYMATTR InstName C1
SYMATTR Value 100f
SYMBOL voltage 144 112 R180
WINDOW 3 48 51 Left 2
WINDOW 123 0 0 Left 0
WINDOW 39 0 0 Left 0
SYMATTR Value 1
SYMATTR InstName VDD1
SYMBOL voltage 0 128 R180
WINDOW 0 -14 -177 Left 2
WINDOW 3 -385 168 Left 2
WINDOW 123 0 0 Left 0
WINDOW 39 0 0 Left 0
SYMATTR InstName V3
SYMATTR Value PULSE(0 1 0 10p 10p 1.875n 3.75n 10)
TEXT 24 280 Left 2 !.include 90nm_bulk.txt
TEXT 56 256 Left 2 !.tran 0 50n 0 1p
